modelo_bdgd2opendss/sub__5001462/5001992/SegmentosMT_2023056072_5001992_------1-----.dss
New "Line.SMT_52875514" phases=3 bus1="80453005001992.1.2.3" bus2="80452995001992.1.2.3" linecode="29-31M_3" length=0.021850000 units=km
New "Line.SMT_52875518" phases=3 bus1="80450845001992.1.2.3" bus2="80450855001992.1.2.3" linecode="1-31M_3" length=0.032672000 units=km
New "Line.SMT_52875519" phases=3 bus1="80450865001992.1.2.3" bus2="95400115001992.1.2.3" linecode="1-31M_3" length=0.008250000 units=km
New "Line.SMT_52875520" phases=3 bus1="80450905001992.1.2.3" bus2="80450845001992.1.2.3" linecode="1-31M_3" length=0.026544000 units=km
New "Line.SMT_52875521" phases=3 bus1="80450915001992.1.2.3" bus2="80450905001992.1.2.3" linecode="1-31M_3" length=0.036612000 units=km
New "Line.SMT_52875522" phases=3 bus1="80450925001992.1.2.3" bus2="80450915001992.1.2.3" linecode="1-31M_3" length=0.034729000 units=km
New "Line.SMT_52875523" phases=3 bus1="80450935001992.1.2.3" bus2="80450925001992.1.2.3" linecode="1-31M_3" length=0.036883000 units=km
New "Line.SMT_52875548" phases=3 bus1="80450005001992.1.2.3" bus2="80450015001992.1.2.3" linecode="1-31M_3" length=0.034214000 units=km
New "Line.SMT_52875549" phases=3 bus1="80450025001992.1.2.3" bus2="80450015001992.1.2.3" linecode="1-31M_3" length=0.027533000 units=km
New "Line.SMT_52875550" phases=3 bus1="80450035001992.1.2.3" bus2="80450025001992.1.2.3" linecode="1-31M_3" length=0.028865000 units=km




New "Line.SMT_52875557" phases=3 bus1="80450165001992.1.2.3" bus2="80450045001992.1.2.3" linecode="1-31M_3" length=0.036581000 units=km
New "Line.SMT_52875558" phases=3 bus1="80450175001992.1.2.3" bus2="86724525001992.1.2.3" linecode="1-31M_3" length=0.034574000 units=km
New "Line.SMT_52875559" phases=3 bus1="80450245001992.1.2.3" bus2="80450195001992.1.2.3" linecode="1-31M_3" length=0.026996000 units=km
New "Line.SMT_52875560" phases=3 bus1="80450255001992.1.2.3" bus2="80450245001992.1.2.3" linecode="1-31M_3" length=0.036655000 units=km
New "Line.SMT_52875561" phases=3 bus1="80450265001992.1.2.3" bus2="80450255001992.1.2.3" linecode="1-31M_3" length=0.045386000 units=km
New "Line.SMT_52875562" phases=3 bus1="80450275001992.1.2.3" bus2="80450265001992.1.2.3" linecode="1-31M_3" length=0.039706000 units=km
New "Line.SMT_52875563" phases=3 bus1="80450185001992.1.2.3" bus2="80450175001992.1.2.3" linecode="1-31M_3" length=0.039352000 units=km
New "Line.SMT_52875564" phases=3 bus1="80450185001992.1.2.3" bus2="80450195001992.1.2.3" linecode="1-31M_3" length=0.039125000 units=km
New "Line.SMT_52875567" phases=3 bus1="80450785001992.1.2.3" bus2="80450775001992.1.2.3" linecode="36-14M_3" length=0.024491000 units=km
New "Line.SMT_52875568" phases=3 bus1="80450835001992.1.2.3" bus2="80450775001992.1.2.3" linecode="36-14M_3" length=0.024514000 units=km
New "Line.SMT_52875569" phases=3 bus1="80450005001992.1.2.3" bus2="80450835001992B.1.2.3" linecode="1-31M_3" length=0.030535000 units=km
New "Line.SMT_52875778" phases=3 bus1="80459175001992.1.2.3" bus2="80459165001992.1.2.3" linecode="36-14M_3" length=0.041971000 units=km
New "Line.SMT_52875779" phases=3 bus1="80459165001992.1.2.3" bus2="80459155001992.1.2.3" linecode="36-14M_3" length=0.042614000 units=km
New "Line.SMT_52875780" phases=3 bus1="80459155001992.1.2.3" bus2="80459145001992.1.2.3" linecode="36-14M_3" length=0.039695000 units=km
New "Line.SMT_52875781" phases=3 bus1="80459145001992.1.2.3" bus2="80459135001992.1.2.3" linecode="36-14M_3" length=0.051383000 units=km
New "Line.SMT_52875782" phases=3 bus1="80459135001992.1.2.3" bus2="80459265001992.1.2.3" linecode="36-14M_3" length=0.045661000 units=km
New "Line.SMT_52875783" phases=3 bus1="80459265001992.1.2.3" bus2="80459275001992.1.2.3" linecode="36-14M_3" length=0.039133000 units=km
New "Line.SMT_52875784" phases=3 bus1="80459275001992.1.2.3" bus2="80459285001992.1.2.3" linecode="36-14M_3" length=0.041728000 units=km
New "Line.SMT_52875785" phases=3 bus1="80459285001992.1.2.3" bus2="80459115001992.1.2.3" linecode="36-14M_3" length=0.031501000 units=km
New "Line.SMT_52875788" phases=3 bus1="80463625001992.1.2.3" bus2="80463635001992.1.2.3" linecode="36-14M_3" length=0.031890000 units=km
New "Line.SMT_52875789" phases=3 bus1="80459115001992.1.2.3" bus2="80459125001992.1.2.3" linecode="36-14M_3" length=0.044074000 units=km
New "Line.SMT_52875811" phases=3 bus1="80464245001992.1.2.3" bus2="80464225001992.1.2.3" linecode="1-31M_3" length=0.022692000 units=km
New "Line.SMT_52875812" phases=3 bus1="80463695001992.1.2.3" bus2="80462255001992.1.2.3" linecode="33-31M_3" length=0.044922000 units=km
New "Line.SMT_52875813" phases=3 bus1="80463705001992.1.2.3" bus2="80463695001992.1.2.3" linecode="33-31M_3" length=0.021691000 units=km
New "Line.SMT_52875818" phases=3 bus1="80465795001992.1.2.3" bus2="80465785001992.1.2.3" linecode="33-31M_3" length=0.038149000 units=km
New "Line.SMT_52875819" phases=3 bus1="80463425001992.1.2.3" bus2="80465865001992.1.2.3" linecode="33-31M_3" length=0.005400000 units=km
New "Line.SMT_52875828" phases=3 bus1="80464815001992.1.2.3" bus2="80451025001992.1.2.3" linecode="1-31M_3" length=0.036625000 units=km
New "Line.SMT_52875829" phases=3 bus1="80464235001992B.1.2.3" bus2="80464275001992.1.2.3" linecode="33-31M_3" length=0.025769000 units=km
New "Line.SMT_52875833" phases=3 bus1="80459765001992.1.2.3" bus2="80459775001992.1.2.3" linecode="1-31M_3" length=0.033285000 units=km
New "Line.SMT_52875834" phases=3 bus1="80459775001992.1.2.3" bus2="80459785001992.1.2.3" linecode="1-31M_3" length=0.030677000 units=km
New "Line.SMT_52875835" phases=3 bus1="80459785001992.1.2.3" bus2="80459795001992.1.2.3" linecode="1-31M_3" length=0.032693000 units=km
New "Line.SMT_52875836" phases=3 bus1="80459795001992.1.2.3" bus2="80459805001992.1.2.3" linecode="1-31M_3" length=0.031633000 units=km
New "Line.SMT_52875837" phases=3 bus1="80459715001992.1.2.3" bus2="80459945001992.1.2.3" linecode="1-31M_3" length=0.036150000 units=km
New "Line.SMT_52875838" phases=3 bus1="80459945001992.1.2.3" bus2="80459955001992.1.2.3" linecode="1-31M_3" length=0.041268000 units=km
New "Line.SMT_52875839" phases=3 bus1="80459995001992.1.2.3" bus2="80459985001992.1.2.3" linecode="1-31M_3" length=0.034734000 units=km
New "Line.SMT_52875840" phases=3 bus1="80459985001992.1.2.3" bus2="94618415001992.1.2.3" linecode="1-31M_3" length=0.013103000 units=km
New "Line.SMT_52875841" phases=3 bus1="80463635001992.1.2.3" bus2="80463645001992.1.2.3" linecode="36-14M_3" length=0.024711000 units=km
New "Line.SMT_52875842" phases=3 bus1="80463645001992.1.2.3" bus2="80463655001992.1.2.3" linecode="36-14M_3" length=0.029857000 units=km
New "Line.SMT_52875843" phases=3 bus1="80463655001992.1.2.3" bus2="80463665001992.1.2.3" linecode="36-14M_3" length=0.035259000 units=km
New "Line.SMT_52875844" phases=3 bus1="80463665001992.1.2.3" bus2="80463675001992.1.2.3" linecode="36-14M_3" length=0.045415000 units=km
New "Line.SMT_52875845" phases=3 bus1="80463675001992.1.2.3" bus2="80459215001992.1.2.3" linecode="36-14M_3" length=0.042666000 units=km
New "Line.SMT_52875846" phases=3 bus1="80459215001992.1.2.3" bus2="80459205001992.1.2.3" linecode="36-14M_3" length=0.043479000 units=km
New "Line.SMT_52875847" phases=3 bus1="80459205001992.1.2.3" bus2="80459195001992.1.2.3" linecode="36-14M_3" length=0.032326000 units=km
New "Line.SMT_52875848" phases=3 bus1="80459195001992.1.2.3" bus2="80459185001992.1.2.3" linecode="36-14M_3" length=0.035713000 units=km
New "Line.SMT_52875849" phases=3 bus1="80459185001992.1.2.3" bus2="80459175001992.1.2.3" linecode="36-14M_3" length=0.052783000 units=km
New "Line.SMT_52875850" phases=3 bus1="80459995001992.1.2.3" bus2="80460235001992.1.2.3" linecode="1-31M_3" length=0.026763000 units=km
New "Line.SMT_52875851" phases=3 bus1="80460235001992.1.2.3" bus2="80460245001992.1.2.3" linecode="1-31M_3" length=0.019536000 units=km
New "Line.SMT_52875852" phases=3 bus1="80460275001992.1.2.3" bus2="80460345001992.1.2.3" linecode="33-31M_3" length=0.030563000 units=km
New "Line.SMT_52875853" phases=3 bus1="80460245001992.1.2.3" bus2="80460275001992.1.2.3" linecode="1-31M_3" length=0.039827000 units=km
New "Line.SMT_52875854" phases=3 bus1="80460275001992.1.2.3" bus2="80460285001992.1.2.3" linecode="1-31M_3" length=0.034729000 units=km
New "Line.SMT_52875855" phases=3 bus1="80460285001992.1.2.3" bus2="80460315001992.1.2.3" linecode="1-31M_3" length=0.040594000 units=km
New "Line.SMT_52875856" phases=3 bus1="80460445001992.1.2.3" bus2="80460435001992.1.2.3" linecode="33-31M_3" length=0.030924000 units=km
New "Line.SMT_52875857" phases=3 bus1="80460455001992.1.2.3" bus2="80460445001992.1.2.3" linecode="33-31M_3" length=0.031100000 units=km
New "Line.SMT_52875858" phases=3 bus1="80460465001992.1.2.3" bus2="80460455001992.1.2.3" linecode="33-31M_3" length=0.037627000 units=km
New "Line.SMT_52875859" phases=3 bus1="80460465001992.1.2.3" bus2="80460475001992.1.2.3" linecode="33-31M_3" length=0.028915000 units=km
New "Line.SMT_52875860" phases=3 bus1="80460495001992.1.2.3" bus2="84030175001992.1.2.3" linecode="33-31M_3" length=0.025736000 units=km
New "Line.SMT_52875861" phases=3 bus1="80460525001992.1.2.3" bus2="80460495001992.1.2.3" linecode="33-31M_3" length=0.028282000 units=km
New "Line.SMT_52875862" phases=3 bus1="80460545001992.1.2.3" bus2="80460535001992.1.2.3" linecode="33-31M_3" length=0.034729000 units=km
New "Line.SMT_52875863" phases=3 bus1="80460535001992.1.2.3" bus2="80460525001992.1.2.3" linecode="33-31M_3" length=0.033260000 units=km
New "Line.SMT_52875864" phases=3 bus1="80460555001992.1.2.3" bus2="80460545001992.1.2.3" linecode="33-31M_3" length=0.018855000 units=km
New "Line.SMT_52875865" phases=3 bus1="80459795001992.1.2.3" bus2="80459835001992.1.2.3" linecode="33-31M_3" length=0.033167000 units=km
New "Line.SMT_52875866" phases=3 bus1="80459835001992B.1.2.3" bus2="80460565001992.1.2.3" linecode="33-31M_3" length=0.018459000 units=km
New "Line.SMT_52875867" phases=3 bus1="80460565001992.1.2.3" bus2="80460575001992.1.2.3" linecode="33-31M_3" length=0.020451000 units=km
New "Line.SMT_52875868" phases=3 bus1="80462265001992.1.2.3" bus2="80462255001992.1.2.3" linecode="33-31M_3" length=0.045282000 units=km
New "Line.SMT_52875869" phases=3 bus1="80462285001992.1.2.3" bus2="80462275001992.1.2.3" linecode="33-31M_3" length=0.033744000 units=km
New "Line.SMT_52875870" phases=3 bus1="80462295001992.1.2.3" bus2="80462285001992.1.2.3" linecode="33-31M_3" length=0.038977000 units=km
New "Line.SMT_52875871" phases=3 bus1="80462305001992.1.2.3" bus2="80462295001992.1.2.3" linecode="33-31M_3" length=0.050933000 units=km
New "Line.SMT_52875872" phases=3 bus1="80462315001992.1.2.3" bus2="80462305001992.1.2.3" linecode="33-31M_3" length=0.035496000 units=km
New "Line.SMT_52875873" phases=3 bus1="80459125001992.1.2.3" bus2="80465305001992.1.2.3" linecode="36-14M_3" length=0.040899000 units=km
New "Line.SMT_52875874" phases=3 bus1="80465305001992.1.2.3" bus2="80465335001992.1.2.3" linecode="36-14M_3" length=0.040177000 units=km
New "Line.SMT_52875875" phases=3 bus1="80465335001992.1.2.3" bus2="80465325001992.1.2.3" linecode="36-14M_3" length=0.049168000 units=km
New "Line.SMT_52875876" phases=3 bus1="80465325001992.1.2.3" bus2="80465315001992.1.2.3" linecode="36-14M_3" length=0.036954000 units=km
New "Line.SMT_52875877" phases=3 bus1="80465315001992.1.2.3" bus2="80465295001992.1.2.3" linecode="36-14M_3" length=0.037990000 units=km
New "Line.SMT_52875878" phases=3 bus1="80465295001992.1.2.3" bus2="80465285001992.1.2.3" linecode="36-14M_3" length=0.038928000 units=km
New "Line.SMT_52875879" phases=3 bus1="80465285001992.1.2.3" bus2="80465185001992.1.2.3" linecode="36-14M_3" length=0.036954000 units=km
New "Line.SMT_52875880" phases=3 bus1="80465185001992.1.2.3" bus2="80465195001992.1.2.3" linecode="36-14M_3" length=0.031749000 units=km
New "Line.SMT_52875881" phases=3 bus1="80465195001992.1.2.3" bus2="80465235001992.1.2.3" linecode="36-14M_3" length=0.026280000 units=km
New "Line.SMT_52875882" phases=3 bus1="80465235001992.1.2.3" bus2="80465275001992.1.2.3" linecode="36-14M_3" length=0.049602000 units=km
New "Line.SMT_52875883" phases=3 bus1="80465275001992.1.2.3" bus2="80465265001992.1.2.3" linecode="36-14M_3" length=0.034977000 units=km
New "Line.SMT_52875884" phases=3 bus1="80465265001992.1.2.3" bus2="80465255001992.1.2.3" linecode="36-14M_3" length=0.028512000 units=km
New "Line.SMT_52875885" phases=3 bus1="80465255001992.1.2.3" bus2="80465245001992.1.2.3" linecode="36-14M_3" length=0.032738000 units=km
New "Line.SMT_52875886" phases=3 bus1="80465245001992.1.2.3" bus2="80465205001992.1.2.3" linecode="36-14M_3" length=0.042711000 units=km
New "Line.SMT_52875887" phases=3 bus1="80465205001992.1.2.3" bus2="80465215001992.1.2.3" linecode="36-14M_3" length=0.035444000 units=km
New "Line.SMT_52875888" phases=3 bus1="80465215001992.1.2.3" bus2="80465225001992.1.2.3" linecode="36-14M_3" length=0.037955000 units=km
New "Line.SMT_52875889" phases=3 bus1="80465225001992.1.2.3" bus2="80465345001992.1.2.3" linecode="36-14M_3" length=0.047435000 units=km
New "Line.SMT_52875890" phases=3 bus1="80465775001992.1.2.3" bus2="80463485001992.1.2.3" linecode="36-14M_3" length=0.029279000 units=km
New "Line.SMT_52875891" phases=3 bus1="80463485001992.1.2.3" bus2="80463495001992.1.2.3" linecode="36-14M_3" length=0.026280000 units=km
New "Line.SMT_52875892" phases=3 bus1="80463495001992.1.2.3" bus2="80463505001992.1.2.3" linecode="36-14M_3" length=0.033495000 units=km
New "Line.SMT_52875893" phases=3 bus1="80465405001992.1.2.3" bus2="80444075001992.1.2.3" linecode="36-14M_3" length=0.017024000 units=km
New "Line.SMT_52875894" phases=3 bus1="80460715001992.1.2.3" bus2="80460705001992.1.2.3" linecode="33-31M_3" length=0.018792000 units=km
New "Line.SMT_52875895" phases=3 bus1="80460705001992.1.2.3" bus2="80460695001992.1.2.3" linecode="33-31M_3" length=0.030319000 units=km
New "Line.SMT_52875896" phases=3 bus1="80460725001992.1.2.3" bus2="80460715001992.1.2.3" linecode="33-31M_3" length=0.013293000 units=km
New "Line.SMT_52875898" phases=3 bus1="80460585001992.1.2.3" bus2="80460635001992.1.2.3" linecode="33-31M_3" length=0.032330000 units=km
New "Line.SMT_52875899" phases=3 bus1="80460635001992.1.2.3" bus2="80460725001992.1.2.3" linecode="33-31M_3" length=0.021474000 units=km
New "Line.SMT_52875900" phases=3 bus1="80462275001992.1.2.3" bus2="80462265001992.1.2.3" linecode="33-31M_3" length=0.033749000 units=km
New "Line.SMT_52875902" phases=3 bus1="80465415001992.1.2.3" bus2="80466195001992.1.2.3" linecode="35-14M_3" length=0.025344000 units=km
New "Line.SMT_52875903" phases=3 bus1="80463085001992.1.2.3" bus2="80463075001992.1.2.3" linecode="33-31M_3" length=0.018848000 units=km
New "Line.SMT_52875904" phases=3 bus1="80463095001992.1.2.3" bus2="80463085001992.1.2.3" linecode="33-31M_3" length=0.020245000 units=km
New "Line.SMT_52875905" phases=3 bus1="80463105001992.1.2.3" bus2="80463095001992.1.2.3" linecode="33-31M_3" length=0.025255000 units=km
New "Line.SMT_52875906" phases=3 bus1="80463065001992.1.2.3" bus2="80463105001992.1.2.3" linecode="33-31M_3" length=0.030694000 units=km
New "Line.SMT_52875907" phases=3 bus1="80463115001992.1.2.3" bus2="80463065001992.1.2.3" linecode="33-31M_3" length=0.025584000 units=km
New "Line.SMT_52875908" phases=3 bus1="80463075001992.1.2.3" bus2="80463145001992.1.2.3" linecode="29-31M_3" length=0.011061000 units=km
New "Line.SMT_52875909" phases=3 bus1="80463145001992.1.2.3" bus2="80463155001992.1.2.3" linecode="29-31M_3" length=0.036928000 units=km
New "Line.SMT_52875910" phases=3 bus1="80463155001992.1.2.3" bus2="80463165001992.1.2.3" linecode="29-31M_3" length=0.042214000 units=km
New "Line.SMT_52875917" phases=3 bus1="80452805001992.1.2.3" bus2="80452785001992.1.2.3" linecode="33-31M_3" length=0.034287000 units=km
New "Line.SMT_52875918" phases=3 bus1="80452805001992.1.2.3" bus2="80452815001992.1.2.3" linecode="33-31M_3" length=0.026184000 units=km
New "Line.SMT_52875919" phases=3 bus1="80452815001992.1.2.3" bus2="80452825001992.1.2.3" linecode="33-31M_3" length=0.042161000 units=km
New "Line.SMT_52875920" phases=3 bus1="80452825001992.1.2.3" bus2="80461875001992.1.2.3" linecode="33-31M_3" length=0.032543000 units=km
New "Line.SMT_52875921" phases=3 bus1="80465425001992B.1.2.3" bus2="80465435001992.1.2.3" linecode="1-31M_3" length=0.026841000 units=km
New "Line.SMT_52875922" phases=3 bus1="80465435001992.1.2.3" bus2="80465445001992.1.2.3" linecode="1-31M_3" length=0.013908000 units=km
New "Line.SMT_52875923" phases=3 bus1="80465435001992.1.2.3" bus2="80465455001992.1.2.3" linecode="33-31M_3" length=0.013643000 units=km
New "Line.SMT_52875924" phases=3 bus1="80465475001992.1.2.3" bus2="80465485001992.1.2.3" linecode="33-31M_3" length=0.018959000 units=km
New "Line.SMT_52875925" phases=3 bus1="80465485001992.1.2.3" bus2="80465495001992.1.2.3" linecode="33-31M_3" length=0.011969000 units=km
New "Line.SMT_52875926" phases=3 bus1="80465505001992.1.2.3" bus2="80465495001992.1.2.3" linecode="33-31M_3" length=0.007608000 units=km
New "Line.SMT_52875927" phases=3 bus1="80465435001992.1.2.3" bus2="80465515001992.1.2.3" linecode="33-31M_3" length=0.019911000 units=km
New "Line.SMT_52875945" phases=3 bus1="80451025001992.1.2.3" bus2="80450935001992.1.2.3" linecode="1-31M_3" length=0.030289000 units=km
New "Line.SMT_52875946" phases=3 bus1="80452855001992.1.2.3" bus2="80463115001992.1.2.3" linecode="33-31M_3" length=0.025645000 units=km
New "Line.SMT_52875947" phases=3 bus1="80452855001992.1.2.3" bus2="80452865001992.1.2.3" linecode="29-31M_3" length=0.016765000 units=km
New "Line.SMT_52875948" phases=3 bus1="80452865001992.1.2.3" bus2="80452875001992.1.2.3" linecode="29-31M_3" length=0.035302000 units=km
New "Line.SMT_52875949" phases=3 bus1="80452885001992.1.2.3" bus2="80462315001992.1.2.3" linecode="29-31M_3" length=0.043719000 units=km
New "Line.SMT_52875950" phases=3 bus1="80452875001992.1.2.3" bus2="80452885001992.1.2.3" linecode="29-31M_3" length=0.032109000 units=km
New "Line.SMT_52875951" phases=3 bus1="80452855001992.1.2.3" bus2="80452895001992.1.2.3" linecode="53-31M_3" length=0.040515000 units=km
New "Line.SMT_52875952" phases=3 bus1="80452905001992.1.2.3" bus2="80452895001992.1.2.3" linecode="53-31M_3" length=0.036712000 units=km
New "Line.SMT_52875953" phases=3 bus1="80452925001992.1.2.3" bus2="80452905001992.1.2.3" linecode="53-31M_3" length=0.023060000 units=km
New "Line.SMT_52875954" phases=3 bus1="80452935001992.1.2.3" bus2="80452925001992.1.2.3" linecode="29-31M_3" length=0.021860000 units=km
New "Line.SMT_52875955" phases=3 bus1="80452945001992.1.2.3" bus2="80452935001992.1.2.3" linecode="29-31M_3" length=0.035141000 units=km
New "Line.SMT_52875956" phases=3 bus1="80452965001992.1.2.3" bus2="80452945001992.1.2.3" linecode="29-31M_3" length=0.020856000 units=km
New "Line.SMT_52875957" phases=3 bus1="80452975001992.1.2.3" bus2="80452965001992.1.2.3" linecode="29-31M_3" length=0.024303000 units=km
New "Line.SMT_52875958" phases=3 bus1="80452995001992.1.2.3" bus2="80452975001992.1.2.3" linecode="29-31M_3" length=0.030092000 units=km
New "Line.SMT_52875959" phases=3 bus1="80463225001992.1.2.3" bus2="80453005001992.1.2.3" linecode="29-31M_3" length=0.023070000 units=km
New "Line.SMT_52875960" phases=3 bus1="80463245001992.1.2.3" bus2="80463225001992.1.2.3" linecode="29-31M_3" length=0.040710000 units=km
New "Line.SMT_52875961" phases=3 bus1="80452785001992.1.2.3" bus2="80463245001992.1.2.3" linecode="29-31M_3" length=0.033119000 units=km
New "Line.SMT_52875962" phases=3 bus1="80465555001992.1.2.3" bus2="80465565001992.1.2.3" linecode="33-31M_3" length=0.033047000 units=km
New "Line.SMT_52875963" phases=3 bus1="80465565001992.1.2.3" bus2="80465575001992B.1.2.3" linecode="33-31M_3" length=0.043621000 units=km
New "Line.SMT_52875964" phases=3 bus1="80465595001992.1.2.3" bus2="80465585001992.1.2.3" linecode="1-31M_3" length=0.012346000 units=km
New "Line.SMT_52875965" phases=3 bus1="80465575001992.1.2.3" bus2="80465585001992.1.2.3" linecode="33-31M_3" length=0.032336000 units=km
New "Line.SMT_52875966" phases=3 bus1="80465445001992.1.2.3" bus2="80465605001992.1.2.3" linecode="1-31M_3" length=0.019749000 units=km
New "Line.SMT_52875967" phases=3 bus1="80465605001992.1.2.3" bus2="80465595001992.1.2.3" linecode="1-31M_3" length=0.030403000 units=km
New "Line.SMT_52875968" phases=3 bus1="80465585001992.1.2.3" bus2="80465615001992B.1.2.3" linecode="1-31M_3" length=0.033802000 units=km
New "Line.SMT_52875969" phases=3 bus1="80465585001992.1.2.3" bus2="80465625001992.1.2.3" linecode="33-31M_3" length=0.010071000 units=km
New "Line.SMT_52875970" phases=3 bus1="80465625001992B.1.2.3" bus2="83085665001992.1.2.3" linecode="33-31M_3" length=0.023005000 units=km
New "Line.SMT_52875972" phases=3 bus1="80459715001992.1.2.3" bus2="80459745001992.1.2.3" linecode="1-31M_3" length=0.012312000 units=km
New "Line.SMT_52875973" phases=3 bus1="80459745001992.1.2.3" bus2="80459725001992.1.2.3" linecode="1-31M_3" length=0.043407000 units=km
New "Line.SMT_52875974" phases=3 bus1="80459695001992.1.2.3" bus2="80459745001992.1.2.3" linecode="1-31M_3" length=0.008502000 units=km
New "Line.SMT_52875975" phases=3 bus1="80459745001992.1.2.3" bus2="80459735001992.1.2.3" linecode="1-31M_3" length=0.041365000 units=km
New "Line.SMT_52875983" phases=3 bus1="80464195001992.1.2.3" bus2="80464215001992.1.2.3" linecode="1-31M_3" length=0.054900000 units=km
New "Line.SMT_52875984" phases=3 bus1="80464215001992.1.2.3" bus2="80464245001992.1.2.3" linecode="1-31M_3" length=0.024932000 units=km
New "Line.SMT_52875985" phases=3 bus1="80464245001992.1.2.3" bus2="80464265001992.1.2.3" linecode="1-31M_3" length=0.015113000 units=km
New "Line.SMT_52875986" phases=3 bus1="80464265001992.1.2.3" bus2="80459815001992.1.2.3" linecode="1-31M_3" length=0.038299000 units=km
New "Line.SMT_52875987" phases=3 bus1="80464275001992.1.2.3" bus2="80464285001992.1.2.3" linecode="33-31M_3" length=0.033764000 units=km
New "Line.SMT_52875988" phases=3 bus1="80464285001992.1.2.3" bus2="80464315001992.1.2.3" linecode="33-31M_3" length=0.041119000 units=km
New "Line.SMT_52875990" phases=3 bus1="80464315001992.1.2.3" bus2="80464345001992.1.2.3" linecode="33-31M_3" length=0.024893000 units=km
New "Line.SMT_52875991" phases=3 bus1="80464425001992.1.2.3" bus2="80459725001992.1.2.3" linecode="1-31M_3" length=0.040551000 units=km
New "Line.SMT_52875992" phases=3 bus1="80464435001992.1.2.3" bus2="80464425001992B.1.2.3" linecode="1-31M_3" length=0.037015000 units=km
New "Line.SMT_52875993" phases=3 bus1="80464475001992.1.2.3" bus2="80464435001992.1.2.3" linecode="1-31M_3" length=0.033799000 units=km
New "Line.SMT_52875994" phases=3 bus1="80463415001992.1.2.3" bus2="80463425001992.1.2.3" linecode="33-31M_3" length=0.019749000 units=km
New "Line.SMT_52875995" phases=3 bus1="80465485001992.1.2.3" bus2="80463415001992.1.2.3" linecode="33-31M_3" length=0.033636000 units=km
New "Line.SMT_52875996" phases=3 bus1="80463415001992.1.2.3" bus2="80465455001992B.1.2.3" linecode="33-31M_3" length=0.050501000 units=km
New "Line.SMT_52876009" phases=3 bus1="80460315001992.1.2.3" bus2="80461165001992.1.2.3" linecode="1-31M_3" length=0.017413000 units=km
New "Line.SMT_52876010" phases=3 bus1="80461165001992.1.2.3" bus2="80461175001992.1.2.3" linecode="1-31M_3" length=0.018083000 units=km
New "Line.SMT_52876015" phases=3 bus1="80464175001992.1.2.3" bus2="80464185001992.1.2.3" linecode="1-31M_3" length=0.039282000 units=km
New "Line.SMT_52876016" phases=3 bus1="80464825001992.1.2.3" bus2="80464175001992.1.2.3" linecode="1-31M_3" length=0.033173000 units=km
New "Line.SMT_52876017" phases=3 bus1="80464815001992.1.2.3" bus2="80464825001992.1.2.3" linecode="1-31M_3" length=0.046641000 units=km
New "Line.SMT_52876018" phases=3 bus1="80464195001992.1.2.3" bus2="80464185001992.1.2.3" linecode="1-31M_3" length=0.030504000 units=km
New "Line.SMT_52876019" phases=3 bus1="80464235001992.1.2.3" bus2="80464245001992.1.2.3" linecode="1-31M_3" length=0.007904000 units=km
New "Line.SMT_52876020" phases=3 bus1="80459815001992.1.2.3" bus2="80459805001992.1.2.3" linecode="1-31M_3" length=0.053506000 units=km
New "Line.SMT_52876028" phases=3 bus1="80463505001992.1.2.3" bus2="80463515001992.1.2.3" linecode="36-14M_3" length=0.045574000 units=km
New "Line.SMT_52876029" phases=3 bus1="80463515001992.1.2.3" bus2="80465405001992.1.2.3" linecode="36-14M_3" length=0.029728000 units=km
New "Line.SMT_52876034" phases=3 bus1="80461545001992.1.2.3" bus2="80461525001992.1.2.3" linecode="29-31M_3" length=0.033383000 units=km
New "Line.SMT_52876035" phases=3 bus1="80461535001992.1.2.3" bus2="80461545001992.1.2.3" linecode="29-31M_3" length=0.014278000 units=km
New "Line.SMT_52876036" phases=3 bus1="80461545001992.1.2.3" bus2="80461555001992.1.2.3" linecode="29-31M_3" length=0.016468000 units=km
New "Line.SMT_52876037" phases=3 bus1="80461565001992.1.2.3" bus2="80461545001992.1.2.3" linecode="29-31M_3" length=0.029647000 units=km
New "Line.SMT_52876038" phases=3 bus1="80461575001992.1.2.3" bus2="80461535001992.1.2.3" linecode="29-31M_3" length=0.037145000 units=km
New "Line.SMT_52876039" phases=3 bus1="80461585001992.1.2.3" bus2="80461575001992.1.2.3" linecode="29-31M_3" length=0.036993000 units=km
New "Line.SMT_52876040" phases=3 bus1="80461605001992.1.2.3" bus2="80461585001992.1.2.3" linecode="29-31M_3" length=0.020179000 units=km
New "Line.SMT_52876041" phases=3 bus1="80461265001992.1.2.3" bus2="80461605001992.1.2.3" linecode="29-31M_3" length=0.021080000 units=km
New "Line.SMT_52876042" phases=3 bus1="80461785001992.1.2.3" bus2="80461795001992.1.2.3" linecode="1-31M_3" length=0.039774000 units=km
New "Line.SMT_52876043" phases=3 bus1="80461795001992.1.2.3" bus2="80461805001992.1.2.3" linecode="1-31M_3" length=0.035496000 units=km
New "Line.SMT_52876044" phases=3 bus1="80461815001992.1.2.3" bus2="80461805001992.1.2.3" linecode="1-31M_3" length=0.009414000 units=km
New "Line.SMT_52876045" phases=3 bus1="80461825001992.1.2.3" bus2="80461805001992.1.2.3" linecode="1-31M_3" length=0.056465000 units=km
New "Line.SMT_52876046" phases=3 bus1="80461825001992B.1.2.3" bus2="80461265001992.1.2.3" linecode="29-31M_3" length=0.061353000 units=km
New "Line.SMT_52876047" phases=3 bus1="80461825001992.1.2.3" bus2="80461835001992.1.2.3" linecode="1-31M_3" length=0.057862000 units=km
New "Line.SMT_52876048" phases=3 bus1="80461845001992.1.2.3" bus2="80461835001992B.1.2.3" linecode="30-31M_3" length=0.016360000 units=km
New "Line.SMT_52876049" phases=3 bus1="80461845001992.1.2.3" bus2="80461855001992.1.2.3" linecode="30-31M_3" length=0.023958000 units=km
New "Line.SMT_52876050" phases=3 bus1="80461865001992.1.2.3" bus2="97800015001992.1.2.3" linecode="30-31M_3" length=0.008184000 units=km
New "Line.SMT_52876051" phases=3 bus1="80461875001992.1.2.3" bus2="80461865001992.1.2.3" linecode="30-31M_3" length=0.042663000 units=km
New "Line.SMT_52876053" phases=3 bus1="80464225001992B.1.2.3" bus2="80464665001992.1.2.3" linecode="33-31M_3" length=0.023215000 units=km
New "Line.SMT_52876054" phases=3 bus1="80464665001992.1.2.3" bus2="80464675001992.1.2.3" linecode="33-31M_3" length=0.042252000 units=km
New "Line.SMT_52876055" phases=3 bus1="80461785001992.1.2.3" bus2="80466045001992.1.2.3" linecode="1-31M_3" length=0.025317000 units=km
New "Line.SMT_52876056" phases=3 bus1="80466045001992.1.2.3" bus2="80461175001992.1.2.3" linecode="1-31M_3" length=0.026833000 units=km
New "Line.SMT_52876060" phases=3 bus1="80461835001992.1.2.3" bus2="93285925001992.1.2.3" linecode="1-31M_3" length=0.018437000 units=km
New "Line.SMT_52876062" phases=3 bus1="80461895001992.1.2.3" bus2="80461305001992.1.2.3" linecode="29-31M_3" length=0.030967000 units=km
New "Line.SMT_52876063" phases=3 bus1="80461895001992.1.2.3" bus2="80461905001992.1.2.3" linecode="1-31M_3" length=0.031164000 units=km
New "Line.SMT_52876064" phases=3 bus1="80461905001992.1.2.3" bus2="80461915001992.1.2.3" linecode="1-31M_3" length=0.039767000 units=km
New "Line.SMT_52876065" phases=3 bus1="80461915001992.1.2.3" bus2="80451155001992.1.2.3" linecode="1-31M_3" length=0.038375000 units=km
New "Line.SMT_52876066" phases=3 bus1="80461975001992.1.2.3" bus2="80461985001992.1.2.3" linecode="29-31M_3" length=0.027335000 units=km
New "Line.SMT_52876067" phases=3 bus1="80461985001992.1.2.3" bus2="80461565001992.1.2.3" linecode="29-31M_3" length=0.020981000 units=km
New "Line.SMT_52876068" phases=3 bus1="80465345001992.1.2.3" bus2="80465355001992.1.2.3" linecode="36-14M_3" length=0.037782000 units=km
New "Line.SMT_52876220" phases=3 bus1="80453215001992.1.2.3" bus2="80453205001992.1.2.3" linecode="33-31M_3" length=0.018798000 units=km
New "Line.SMT_52876221" phases=3 bus1="80451155001992.1.2.3" bus2="80453245001992.1.2.3" linecode="1-31M_3" length=0.048012000 units=km
...



New "Line.SMT_55632783" phases=3 bus1="97799975001992.1.2.3" bus2="97800005001992.1.2.3" linecode="30-31M_3" length=0.006900000 units=km
New "Line.SMT_55632785" phases=3 bus1="97800005001992.1.2.3" bus2="80461855001992.1.2.3" linecode="30-31M_3" length=0.008511000 units=km
New "Line.SMT_55632787" phases=3 bus1="97800015001992.1.2.3" bus2="97799975001992B.1.2.3" linecode="30-31M_3" length=0.006808000 units=km
New "Line.SMT_55632789" phases=3 bus1="97800015001992.1.2.3" bus2="97799995001992.1.2.3" linecode="35-14M_3" length=0.006704000 units=km
New "Line.SMT_55632790" phases=3 bus1="97799995001992.1.2.3" bus2="97799985001992B.1.2.3" linecode="35-14M_3" length=0.013753000 units=km
New "Line.SMT_55632791" phases=3 bus1="97799985001992.1.2.3" bus2="97800005001992.1.2.3" linecode="35-14M_3" length=0.006754000 units=km
New "Line.SMT_55664949" phases=3 bus1="98014165001992.1.2.3" bus2="80463395001992.1.2.3" linecode="803-14M_3" length=0.023594000 units=km
New "Line.SMT_55666107" phases=3 bus1="98027025001992B.1.2.3" bus2="98027065001992.1.2.3" linecode="33-31M_3" length=0.009847000 units=km
New "Line.SMT_55666109" phases=3 bus1="98027045001992.1.2.3" bus2="98027025001992.1.2.3" linecode="33-31M_3" length=0.006022000 units=km
New "Line.SMT_55666111" phases=3 bus1="98027065001992.1.2.3" bus2="80538895001992.1.2.3" linecode="33-31M_3" length=0.006951000 units=km
New "Line.SMT_55666113" phases=3 bus1="98027045001992.1.2.3" bus2="98027035001992.1.2.3" linecode="35-14M_3" length=0.006692000 units=km
New "Line.SMT_55666114" phases=3 bus1="98027035001992B.1.2.3" bus2="98027055001992.1.2.3" linecode="35-14M_3" length=0.014933000 units=km
New "Line.SMT_55666115" phases=3 bus1="98027055001992.1.2.3" bus2="98027065001992.1.2.3" linecode="35-14M_3" length=0.007544000 units=km
New "Line.SMT_55758018" phases=3 bus1="80492935001992.1.2.3" bus2="98680885001992.1.2.3" linecode="35-14M_3" length=0.002170000 units=km
New "Line.SMT_88888839677" phases=3 bus1="I888888308015001992.1.2.3" bus2="I888888314625001992.1.2.3" linecode="39-31M_3" length=0.000001000 units=km
New "Line.SMT_88888838721" phases=3 bus1="85521915001992.1.2.3" bus2="I888888308015001992.1.2.3" linecode="39-31M_3" length=0.000001000 units=km
New "Line.SMT_88888839684" phases=3 bus1="I888888103475001992B.1.2.3" bus2="I888888314395001992.1.2.3" linecode="39-31M_3" length=0.000001000 units=km
New "Line.SMT_88888839686" phases=3 bus1="I888888314395001992.1.2.3" bus2="INT114925001992.1.2.3" linecode="39-31M_3" length=0.000001000 units=km
New "Line.SMT_88888863631" phases=3 bus1="I888888314625001992.1.2.3" bus2="I888888477805001992.1.2.3" linecode="39-31M_3" length=0.000001000 units=km
New "Line.SMT_88888863632" phases=3 bus1="I888888477815001992B.1.2.3" bus2="I888888103475001992.1.2.3" linecode="39-31M_3" length=0.000001000 units=km
New "Line.SMT_88888863633" phases=3 bus1="I888888308015001992.1.2.3" bus2="I888888477815001992B.1.2.3" linecode="39-31M_3" length=0.000001000 units=km
New "Line.SMT_55830548" phases=3 bus1="80495255001992.1.2.3" bus2="99337605001992.1.2.3" linecode="33-31M_3" length=0.025296000 units=km
New "Line.SMT_55830571" phases=3 bus1="99337755001992B.1.2.3" bus2="99337765001992.1.2.3" linecode="700-14M_3" length=0.010135000 units=km
New "Line.SMT_55830570" phases=3 bus1="99337605001992.1.2.3" bus2="99337755001992.1.2.3" linecode="700-14M_3" length=0.012807000 units=km
New "Line.SMT_55843708" phases=3 bus1="99422785001992.1.2.3" bus2="80486945001992.1.2.3" linecode="1-31M_3" length=0.020427000 units=km
New "Line.SMT_55843706" phases=3 bus1="99422785001992.1.2.3" bus2="80487135001992.1.2.3" linecode="801-14M_3" length=0.025412000 units=km
New "Line.SMT_55843707" phases=3 bus1="80486935001992.1.2.3" bus2="99422785001992.1.2.3" linecode="1-31M_3" length=0.015422000 units=km
New "Line.SMT_55855078" phases=3 bus1="97738295001992.1.2.3" bus2="80450045001992.1.2.3" linecode="35-14M_3" length=0.018071000 units=km
